# File generated by Flopy version 3.3.7 on 08/25/2023 at 16:03:15.
BEGIN options
END options

BEGIN timing
  TDIS6  test1.tdis
END timing

BEGIN models
  gwf6  model.nam  model
END models

BEGIN exchanges
END exchanges

BEGIN solutiongroup  1
  ims6  test1.ims  model
END solutiongroup  1

