# File generated by Flopy version 3.3.7 on 08/25/2023 at 16:03:15.
BEGIN options
END options

BEGIN dimensions
  NLAY  20
  NROW  101
  NCOL  101
END dimensions

BEGIN griddata
  delr
    CONSTANT       4.00000000
  delc
    CONSTANT       4.00000000
  top
    CONSTANT       0.00000000
  botm  LAYERED
    CONSTANT      -2.50000000
    CONSTANT      -5.00000000
    CONSTANT      -7.50000000
    CONSTANT     -10.00000000
    CONSTANT     -12.50000000
    CONSTANT     -15.00000000
    CONSTANT     -17.50000000
    CONSTANT     -20.00000000
    CONSTANT     -22.50000000
    CONSTANT     -25.00000000
    CONSTANT     -27.50000000
    CONSTANT     -30.00000000
    CONSTANT     -32.50000000
    CONSTANT     -35.00000000
    CONSTANT     -37.50000000
    CONSTANT     -40.00000000
    CONSTANT     -42.50000000
    CONSTANT     -45.00000000
    CONSTANT     -47.50000000
    CONSTANT     -50.00000000
END griddata

