# File generated by Flopy version 3.3.7 on 08/25/2023 at 16:03:16.
BEGIN options
  auxiliary  iface
END options

BEGIN dimensions
  MAXBOUND  2
END dimensions

BEGIN period  1
  20 26 26      -0.00115741              nan
  19 26 26      -0.00115741       0.00000000
END period  1

