# File generated by Flopy version 3.3.7 on 08/25/2023 at 16:03:15.
BEGIN options
  SAVE_SPECIFIC_DISCHARGE
END options

BEGIN griddata
  icelltype
    CONSTANT  1
  k
    INTERNAL  FACTOR  1.0
    1.00000000E-07  1.00000000E-07  1.00000000E-07  1.00000000E-07  1.00000000E-07  1.00000000E-07  1.00000000E-07  1.00000000E-07  1.00000000E-07  1.00000000E-07  1.00000000E-07  1.00000000E-07  1.00000000E-07  1.00000000E-07  1.00000000E-07  1.00000000E-07  1.00000000E-07  1.00000000E-07  1.00000000E-07  1.00000000E-07  1.00000000E-07  1.00000000E-07  1.00000000E-07  1.00000000E-07  1.00000000E-07  1.00000000E-07  1.00000000E-07  1.00000000E-07  1.00000000E-07  1.00000000E-07  1.00000000E-07  1.00000000E-07  1.00000000E-07  1.00000000E-07  1.00000000E-07  1.00000000E-07  1.00000000E-07  1.00000000E-07  1.00000000E-07  1.00000000E-07  1.00000000E-07  1.00000000E-07  1.00000000E-07  1.00000000E-07  1.00000000E-07  1.00000000E-07  1.00000000E-07  1.00000000E-07  1.00000000E-07  1.00000000E-07  1.00000000E-07  1.00000000E-07  1.00000000E-07  1.00000000E-07  1.00000000E-07  1.00000000E-07  1.00000000E-07  1.00000000E-07  1.00000000E-07  1.00000000E-07  1.00000000E-07  1.00000000E-07  1.00000000E-07  1.00000000E-07  1.00000000E-07  1.00000000E-07  1.00000000E-07  1.00000000E-07  1.00000000E-07  1.00000000E-07  1.00000000E-07  1.00000000E-07  1.00000000E-07  1.00000000E-07  1.00000000E-07  1.00000000E-07  1.00000000E-07  1.00000000E-07  1.00000000E-07  1.00000000E-07  1.00000000E-07  1.00000000E-07  1.00000000E-07  1.00000000E-07  1.00000000E-07  1.00000000E-07  1.00000000E-07  1.00000000E-07  1.00000000E-07  1.00000000E-07  1.00000000E-07  1.00000000E-07  1.00000000E-07  1.00000000E-07  1.00000000E-07  1.00000000E-07  1.00000000E-07  1.00000000E-07  1.00000000E-07  1.00000000E-07  1.00000000E-07
    1.00000000E-07  1.00000000E-07  1.00000000E-07  1.00000000E-07  1.00000000E-07  1.00000000E-07  1.00000000E-07  1.00000000E-07  1.00000000E-07  1.00000000E-07  1.00000000E-07  1.00000000E-07  1.00000000E-07  1.00000000E-07  1.00000000E-07  1.00000000E-07  1.00000000E-07  1.00000000E-07  1.00000000E-07  1.00000000E-07  1.00000000E-07  1.00000000E-07  1.00000000E-07  1.00000000E-07  1.00000000E-07  1.00000000E-07  1.00000000E-07  1.00000000E-07  1.00000000E-07  1.00000000E-07  1.00000000E-07  1.00000000E-07  1.00000000E-07  1.00000000E-07  1.00000000E-07  1.00000000E-07  1.00000000E-07  1.00000000E-07  1.00000000E-07  1.00000000E-07  1.00000000E-07  1.00000000E-07  1.00000000E-07  1.00000000E-07  1.00000000E-07  1.00000000E-07  1.00000000E-07  1.00000000E-07  1.00000000E-07  1.00000000E-07  1.00000000E-07  1.00000000E-07  1.00000000E-07  1.00000000E-07  1.00000000E-07  1.00000000E-07  1.00000000E-07  1.00000000E-07  1.00000000E-07  1.00000000E-07  1.00000000E-07  1.00000000E-07  1.00000000E-07  1.00000000E-07  1.00000000E-07  1.00000000E-07  1.00000000E-07  1.00000000E-07  1.00000000E-07  1.00000000E-07  1.00000000E-07  1.00000000E-07  1.00000000E-07  1.00000000E-07  1.00000000E-07  1.00000000E-07  1.00000000E-07  1.00000000E-07  1.00000000E-07  1.00000000E-07  1.00000000E-07  1.00000000E-07  1.00000000E-07  1.00000000E-07  1.00000000E-07  1.00000000E-07  1.00000000E-07  1.00000000E-07  1.00000000E-07  1.00000000E-07  1.00000000E-07  1.00000000E-07  1.00000000E-07  1.00000000E-07  1.00000000E-07  1.00000000E-07  1.00000000E-07  1.00000000E-07  1.00000000E-07  1.00000000E-07  1.00000000E-07
    1.00000000E-07  1.00000000E-07  1.00000000E-07  1.00000000E-07  1.00000000E-07  1.00000000E-07  1.00000000E-07  1.00000000E-07  1.00000000E-07  1.00000000E-07  1.00000000E-07  1.00000000E-07  1.00000000E-07  1.00000000E-07  1.00000000E-07  1.00000000E-07  1.00000000E-07  1.00000000E-07  1.00000000E-07  1.00000000E-07  1.00000000E-07  1.00000000E-07  1.00000000E-07  1.00000000E-07  1.00000000E-07  1.00000000E-07  1.00000000E-07  1.00000000E-07  1.00000000E-07  1.00000000E-07  1.00000000E-07  1.00000000E-07  1.00000000E-07  1.00000000E-07  1.00000000E-07  1.00000000E-07  1.00000000E-07  1.00000000E-07  1.00000000E-07  1.00000000E-07  1.00000000E-07  1.00000000E-07  1.00000000E-07  1.00000000E-07  1.00000000E-07  1.00000000E-07  1.00000000E-07  1.00000000E-07  1.00000000E-07  1.00000000E-07  1.00000000E-07  1.00000000E-07  1.00000000E-07  1.00000000E-07  1.00000000E-07  1.00000000E-07  1.00000000E-07  1.00000000E-07  1.00000000E-07  1.00000000E-07  1.00000000E-07  1.00000000E-07  1.00000000E-07  1.00000000E-07  1.00000000E-07  1.00000000E-07  1.00000000E-07  1.00000000E-07  1.00000000E-07  1.00000000E-07  1.00000000E-07  1.00000000E-07  1.00000000E-07  1.00000000E-07  1.00000000E-07  1.00000000E-07  1.00000000E-07  1.00000000E-07  1.00000000E-07  1.00000000E-07  1.00000000E-07  1.00000000E-07  1.00000000E-07  1.00000000E-07  1.00000000E-07  1.00000000E-07  1.00000000E-07  1.00000000E-07  1.00000000E-07  1.00000000E-07  1.00000000E-07  1.00000000E-07  1.00000000E-07  1.00000000E-07  1.00000000E-07  1.00000000E-07  1.00000000E-07  1.00000000E-07  1.00000000E-07  1.00000000E-07  1.00000000E-07
    1.00000000E-07  1.00000000E-07  1.00000000E-07  1.00000000E-07  1.00000000E-07  1.00000000E-07  1.00000000E-07  1.00000000E-07  1.00000000E-07  1.00000000E-07  1.00000000E-07  1.00000000E-07  1.00000000E-07  1.00000000E-07  1.00000000E-07  1.00000000E-07  1.00000000E-07  1.00000000E-07  1.00000000E-07  1.00000000E-07  1.00000000E-07  1.00000000E-07  1.00000000E-07  1.00000000E-07  1.00000000E-07  1.00000000E-07  1.00000000E-07  1.00000000E-07  1.00000000E-07  1.00000000E-07  1.00000000E-07  1.00000000E-07  1.00000000E-07  1.00000000E-07  1.00000000E-07  1.00000000E-07  1.00000000E-07  1.00000000E-07  1.00000000E-07  1.00000000E-07  1.00000000E-07  1.00000000E-07  1.00000000E-07  1.00000000E-07  1.00000000E-07  1.00000000E-07  1.00000000E-07  1.00000000E-07  1.00000000E-07  1.00000000E-07  1.00000000E-07  1.00000000E-07  1.00000000E-07  1.00000000E-07  1.00000000E-07  1.00000000E-07  1.00000000E-07  1.00000000E-07  1.00000000E-07  1.00000000E-07  1.00000000E-07  1.00000000E-07  1.00000000E-07  1.00000000E-07  1.00000000E-07  1.00000000E-07  1.00000000E-07  1.00000000E-07  1.00000000E-07  1.00000000E-07  1.00000000E-07  1.00000000E-07  1.00000000E-07  1.00000000E-07  1.00000000E-07  1.00000000E-07  1.00000000E-07  1.00000000E-07  1.00000000E-07  1.00000000E-07  1.00000000E-07  1.00000000E-07  1.00000000E-07  1.00000000E-07  1.00000000E-07  1.00000000E-07  1.00000000E-07  1.00000000E-07  1.00000000E-07  1.00000000E-07  1.00000000E-07  1.00000000E-07  1.00000000E-07  1.00000000E-07  1.00000000E-07  1.00000000E-07  1.00000000E-07  1.00000000E-07  1.00000000E-07  1.00000000E-07  1.00000000E-07
    1.00000000E-07  1.00000000E-07  1.00000000E-07  1.00000000E-07  1.00000000E-07  1.00000000E-07  1.00000000E-07  1.00000000E-07  1.00000000E-07  1.00000000E-07  1.00000000E-07  1.00000000E-07  1.00000000E-07  1.00000000E-07  1.00000000E-07  1.00000000E-07  1.00000000E-07  1.00000000E-07  1.00000000E-07  1.00000000E-07  1.00000000E-07  1.00000000E-07  1.00000000E-07  1.00000000E-07  1.00000000E-07  1.00000000E-07  1.00000000E-07  1.00000000E-07  1.00000000E-07  1.00000000E-07  1.00000000E-07  1.00000000E-07  1.00000000E-07  1.00000000E-07  1.00000000E-07  1.00000000E-07  1.00000000E-07  1.00000000E-07  1.00000000E-07  1.00000000E-07  1.00000000E-07  1.00000000E-07  1.00000000E-07  1.00000000E-07  1.00000000E-07  1.00000000E-07  1.00000000E-07  1.00000000E-07  1.00000000E-07  1.00000000E-07  1.00000000E-07  1.00000000E-07  1.00000000E-07  1.00000000E-07  1.00000000E-07  1.00000000E-07  1.00000000E-07  1.00000000E-07  1.00000000E-07  1.00000000E-07  1.00000000E-07  1.00000000E-07  1.00000000E-07  1.00000000E-07  1.00000000E-07  1.00000000E-07  1.00000000E-07  1.00000000E-07  1.00000000E-07  1.00000000E-07  1.00000000E-07  1.00000000E-07  1.00000000E-07  1.00000000E-07  1.00000000E-07  1.00000000E-07  1.00000000E-07  1.00000000E-07  1.00000000E-07  1.00000000E-07  1.00000000E-07  1.00000000E-07  1.00000000E-07  1.00000000E-07  1.00000000E-07  1.00000000E-07  1.00000000E-07  1.00000000E-07  1.00000000E-07  1.00000000E-07  1.00000000E-07  1.00000000E-07  1.00000000E-07  1.00000000E-07  1.00000000E-07  1.00000000E-07  1.00000000E-07  1.00000000E-07  1.00000000E-07  1.00000000E-07  1.00000000E-07
    1.00000000E-07  1.00000000E-07  1.00000000E-07  1.00000000E-07  1.00000000E-07  1.00000000E-07  1.00000000E-07  1.00000000E-07  1.00000000E-07  1.00000000E-07  1.00000000E-07  1.00000000E-07  1.00000000E-07  1.00000000E-07  1.00000000E-07  1.00000000E-07  1.00000000E-07  1.00000000E-07  1.00000000E-07  1.00000000E-07  1.00000000E-07  1.00000000E-07  1.00000000E-07  1.00000000E-07  1.00000000E-07  1.00000000E-07  1.00000000E-07  1.00000000E-07  1.00000000E-07  1.00000000E-07  1.00000000E-07  1.00000000E-07  1.00000000E-07  1.00000000E-07  1.00000000E-07  1.00000000E-07  1.00000000E-07  1.00000000E-07  1.00000000E-07  1.00000000E-07  1.00000000E-07  1.00000000E-07  1.00000000E-07  1.00000000E-07  1.00000000E-07  1.00000000E-07  1.00000000E-07  1.00000000E-07  1.00000000E-07  1.00000000E-07  1.00000000E-07  1.00000000E-07  1.00000000E-07  1.00000000E-07  1.00000000E-07  1.00000000E-07  1.00000000E-07  1.00000000E-07  1.00000000E-07  1.00000000E-07  1.00000000E-07  1.00000000E-07  1.00000000E-07  1.00000000E-07  1.00000000E-07  1.00000000E-07  1.00000000E-07  1.00000000E-07  1.00000000E-07  1.00000000E-07  1.00000000E-07  1.00000000E-07  1.00000000E-07  1.00000000E-07  1.00000000E-07  1.00000000E-07  1.00000000E-07  1.00000000E-07  1.00000000E-07  1.00000000E-07  1.00000000E-07  1.00000000E-07  1.00000000E-07  1.00000000E-07  1.00000000E-07  1.00000000E-07  1.00000000E-07  1.00000000E-07  1.00000000E-07  1.00000000E-07  1.00000000E-07  1.00000000E-07  1.00000000E-07  1.00000000E-07  1.00000000E-07  1.00000000E-07  1.00000000E-07  1.00000000E-07  1.00000000E-07  1.00000000E-07  1.00000000E-07
    1.00000000E-07  1.00000000E-07  1.00000000E-07  1.00000000E-07  1.00000000E-07  1.00000000E-07  1.00000000E-07  1.00000000E-07  1.00000000E-07  1.00000000E-07  1.00000000E-07  1.00000000E-07  1.00000000E-07  1.00000000E-07  1.00000000E-07  1.00000000E-07  1.00000000E-07  1.00000000E-07  1.00000000E-07  1.00000000E-07  1.00000000E-07  1.00000000E-07  1.00000000E-07  1.00000000E-07  1.00000000E-07  1.00000000E-07  1.00000000E-07  1.00000000E-07  1.00000000E-07  1.00000000E-07  1.00000000E-07  1.00000000E-07  1.00000000E-07  1.00000000E-07  1.00000000E-07  1.00000000E-07  1.00000000E-07  1.00000000E-07  1.00000000E-07  1.00000000E-07  1.00000000E-07  1.00000000E-07  1.00000000E-07  1.00000000E-07  1.00000000E-07  1.00000000E-07  1.00000000E-07  1.00000000E-07  1.00000000E-07  1.00000000E-07  1.00000000E-07  1.00000000E-07  1.00000000E-07  1.00000000E-07  1.00000000E-07  1.00000000E-07  1.00000000E-07  1.00000000E-07  1.00000000E-07  1.00000000E-07  1.00000000E-07  1.00000000E-07  1.00000000E-07  1.00000000E-07  1.00000000E-07  1.00000000E-07  1.00000000E-07  1.00000000E-07  1.00000000E-07  1.00000000E-07  1.00000000E-07  1.00000000E-07  1.00000000E-07  1.00000000E-07  1.00000000E-07  1.00000000E-07  1.00000000E-07  1.00000000E-07  1.00000000E-07  1.00000000E-07  1.00000000E-07  1.00000000E-07  1.00000000E-07  1.00000000E-07  1.00000000E-07  1.00000000E-07  1.00000000E-07  1.00000000E-07  1.00000000E-07  1.00000000E-07  1.00000000E-07  1.00000000E-07  1.00000000E-07  1.00000000E-07  1.00000000E-07  1.00000000E-07  1.00000000E-07  1.00000000E-07  1.00000000E-07  1.00000000E-07  1.00000000E-07
    1.00000000E-07  1.00000000E-07  1.00000000E-07  1.00000000E-07  1.00000000E-07  1.00000000E-07  1.00000000E-07  1.00000000E-07  1.00000000E-07  1.00000000E-07  1.00000000E-07  1.00000000E-07  1.00000000E-07  1.00000000E-07  1.00000000E-07  1.00000000E-07  1.00000000E-07  1.00000000E-07  1.00000000E-07  1.00000000E-07  1.00000000E-07  1.00000000E-07  1.00000000E-07  1.00000000E-07  1.00000000E-07  1.00000000E-07  1.00000000E-07  1.00000000E-07  1.00000000E-07  1.00000000E-07  1.00000000E-07  1.00000000E-07  1.00000000E-07  1.00000000E-07  1.00000000E-07  1.00000000E-07  1.00000000E-07  1.00000000E-07  1.00000000E-07  1.00000000E-07  1.00000000E-07  1.00000000E-07  1.00000000E-07  1.00000000E-07  1.00000000E-07  1.00000000E-07  1.00000000E-07  1.00000000E-07  1.00000000E-07  1.00000000E-07  1.00000000E-07  1.00000000E-07  1.00000000E-07  1.00000000E-07  1.00000000E-07  1.00000000E-07  1.00000000E-07  1.00000000E-07  1.00000000E-07  1.00000000E-07  1.00000000E-07  1.00000000E-07  1.00000000E-07  1.00000000E-07  1.00000000E-07  1.00000000E-07  1.00000000E-07  1.00000000E-07  1.00000000E-07  1.00000000E-07  1.00000000E-07  1.00000000E-07  1.00000000E-07  1.00000000E-07  1.00000000E-07  1.00000000E-07  1.00000000E-07  1.00000000E-07  1.00000000E-07  1.00000000E-07  1.00000000E-07  1.00000000E-07  1.00000000E-07  1.00000000E-07  1.00000000E-07  1.00000000E-07  1.00000000E-07  1.00000000E-07  1.00000000E-07  1.00000000E-07  1.00000000E-07  1.00000000E-07  1.00000000E-07  1.00000000E-07  1.00000000E-07  1.00000000E-07  1.00000000E-07  1.00000000E-07  1.00000000E-07  1.00000000E-07  1.00000000E-07
    1.00000000E-07  1.00000000E-07  1.00000000E-07  1.00000000E-07  1.00000000E-07  1.00000000E-07  1.00000000E-07  1.00000000E-07  1.00000000E-07  1.00000000E-07  1.00000000E-07  1.00000000E-07  1.00000000E-07  1.00000000E-07  1.00000000E-07  1.00000000E-07  1.00000000E-07  1.00000000E-07  1.00000000E-07  1.00000000E-07  1.00000000E-07  1.00000000E-07  1.00000000E-07  1.00000000E-07  1.00000000E-07  1.00000000E-07  1.00000000E-07  1.00000000E-07  1.00000000E-07  1.00000000E-07  1.00000000E-07  1.00000000E-07  1.00000000E-07  1.00000000E-07  1.00000000E-07  1.00000000E-07  1.00000000E-07  1.00000000E-07  1.00000000E-07  1.00000000E-07  1.00000000E-07  1.00000000E-07  1.00000000E-07  1.00000000E-07  1.00000000E-07  1.00000000E-07  1.00000000E-07  1.00000000E-07  1.00000000E-07  1.00000000E-07  1.00000000E-07  1.00000000E-07  1.00000000E-07  1.00000000E-07  1.00000000E-07  1.00000000E-07  1.00000000E-07  1.00000000E-07  1.00000000E-07  1.00000000E-07  1.00000000E-07  1.00000000E-07  1.00000000E-07  1.00000000E-07  1.00000000E-07  1.00000000E-07  1.00000000E-07  1.00000000E-07  1.00000000E-07  1.00000000E-07  1.00000000E-07  1.00000000E-07  1.00000000E-07  1.00000000E-07  1.00000000E-07  1.00000000E-07  1.00000000E-07  1.00000000E-07  1.00000000E-07  1.00000000E-07  1.00000000E-07  1.00000000E-07  1.00000000E-07  1.00000000E-07  1.00000000E-07  1.00000000E-07  1.00000000E-07  1.00000000E-07  1.00000000E-07  1.00000000E-07  1.00000000E-07  1.00000000E-07  1.00000000E-07  1.00000000E-07  1.00000000E-07  1.00000000E-07  1.00000000E-07  1.00000000E-07  1.00000000E-07  1.00000000E-07  1.00000000E-07
    1.00000000E-07  1.00000000E-07  1.00000000E-07  1.00000000E-07  1.00000000E-07  1.00000000E-07  1.00000000E-07  1.00000000E-07  1.00000000E-07  1.00000000E-07  1.00000000E-07  1.00000000E-07  1.00000000E-07  1.00000000E-07  1.00000000E-07  1.00000000E-07  1.00000000E-07  1.00000000E-07  1.00000000E-07  1.00000000E-07  1.00000000E-07  1.00000000E-07  1.00000000E-07  1.00000000E-07  1.00000000E-07  1.00000000E-07  1.00000000E-07  1.00000000E-07  1.00000000E-07  1.00000000E-07  1.00000000E-07  1.00000000E-07  1.00000000E-07  1.00000000E-07  1.00000000E-07  1.00000000E-07  1.00000000E-07  1.00000000E-07  1.00000000E-07  1.00000000E-07  1.00000000E-07  1.00000000E-07  1.00000000E-07  1.00000000E-07  1.00000000E-07  1.00000000E-07  1.00000000E-07  1.00000000E-07  1.00000000E-07  1.00000000E-07  1.00000000E-07  1.00000000E-07  1.00000000E-07  1.00000000E-07  1.00000000E-07  1.00000000E-07  1.00000000E-07  1.00000000E-07  1.00000000E-07  1.00000000E-07  1.00000000E-07  1.00000000E-07  1.00000000E-07  1.00000000E-07  1.00000000E-07  1.00000000E-07  1.00000000E-07  1.00000000E-07  1.00000000E-07  1.00000000E-07  1.00000000E-07  1.00000000E-07  1.00000000E-07  1.00000000E-07  1.00000000E-07  1.00000000E-07  1.00000000E-07  1.00000000E-07  1.00000000E-07  1.00000000E-07  1.00000000E-07  1.00000000E-07  1.00000000E-07  1.00000000E-07  1.00000000E-07  1.00000000E-07  1.00000000E-07  1.00000000E-07  1.00000000E-07  1.00000000E-07  1.00000000E-07  1.00000000E-07  1.00000000E-07  1.00000000E-07  1.00000000E-07  1.00000000E-07  1.00000000E-07  1.00000000E-07  1.00000000E-07  1.00000000E-07  1.00000000E-07
    1.00000000E-07  1.00000000E-07  1.00000000E-07  1.00000000E-07  1.00000000E-07  1.00000000E-07  1.00000000E-07  1.00000000E-07  1.00000000E-07  1.00000000E-07  1.00000000E-07  1.00000000E-07  1.00000000E-07  1.00000000E-07  1.00000000E-07  1.00000000E-07  1.00000000E-07  1.00000000E-07  1.00000000E-07  1.00000000E-07  1.00000000E-07  1.00000000E-07  1.00000000E-07  1.00000000E-07  1.00000000E-07  1.00000000E-07  1.00000000E-07  1.00000000E-07  1.00000000E-07  1.00000000E-07  1.00000000E-07  1.00000000E-07  1.00000000E-07  1.00000000E-07  1.00000000E-07  1.00000000E-07  1.00000000E-07  1.00000000E-07  1.00000000E-07  1.00000000E-07  1.00000000E-07  1.00000000E-07  1.00000000E-07  1.00000000E-07  1.00000000E-07  1.00000000E-07  1.00000000E-07  1.00000000E-07  1.00000000E-07  1.00000000E-07  1.00000000E-07  1.00000000E-07  1.00000000E-07  1.00000000E-07  1.00000000E-07  1.00000000E-07  1.00000000E-07  1.00000000E-07  1.00000000E-07  1.00000000E-07  1.00000000E-07  1.00000000E-07  1.00000000E-07  1.00000000E-07  1.00000000E-07  1.00000000E-07  1.00000000E-07  1.00000000E-07  1.00000000E-07  1.00000000E-07  1.00000000E-07  1.00000000E-07  1.00000000E-07  1.00000000E-07  1.00000000E-07  1.00000000E-07  1.00000000E-07  1.00000000E-07  1.00000000E-07  1.00000000E-07  1.00000000E-07  1.00000000E-07  1.00000000E-07  1.00000000E-07  1.00000000E-07  1.00000000E-07  1.00000000E-07  1.00000000E-07  1.00000000E-07  1.00000000E-07  1.00000000E-07  1.00000000E-07  1.00000000E-07  1.00000000E-07  1.00000000E-07  1.00000000E-07  1.00000000E-07  1.00000000E-07  1.00000000E-07  1.00000000E-07  1.00000000E-07
    1.00000000E-07  1.00000000E-07  1.00000000E-07  1.00000000E-07  1.00000000E-07  1.00000000E-07  1.00000000E-07  1.00000000E-07  1.00000000E-07  1.00000000E-07  1.00000000E-07  1.00000000E-07  1.00000000E-07  1.00000000E-07  1.00000000E-07  1.00000000E-07  1.00000000E-07  1.00000000E-07  1.00000000E-07  1.00000000E-07  1.00000000E-07  1.00000000E-07  1.00000000E-07  1.00000000E-07  1.00000000E-07  1.00000000E-07  1.00000000E-07  1.00000000E-07  1.00000000E-07  1.00000000E-07  1.00000000E-07  1.00000000E-07  1.00000000E-07  1.00000000E-07  1.00000000E-07  1.00000000E-07  1.00000000E-07  1.00000000E-07  1.00000000E-07  1.00000000E-07  1.00000000E-07  1.00000000E-07  1.00000000E-07  1.00000000E-07  1.00000000E-07  1.00000000E-07  1.00000000E-07  1.00000000E-07  1.00000000E-07  1.00000000E-07  1.00000000E-07  1.00000000E-07  1.00000000E-07  1.00000000E-07  1.00000000E-07  1.00000000E-07  1.00000000E-07  1.00000000E-07  1.00000000E-07  1.00000000E-07  1.00000000E-07  1.00000000E-07  1.00000000E-07  1.00000000E-07  1.00000000E-07  1.00000000E-07  1.00000000E-07  1.00000000E-07  1.00000000E-07  1.00000000E-07  1.00000000E-07  1.00000000E-07  1.00000000E-07  1.00000000E-07  1.00000000E-07  1.00000000E-07  1.00000000E-07  1.00000000E-07  1.00000000E-07  1.00000000E-07  1.00000000E-07  1.00000000E-07  1.00000000E-07  1.00000000E-07  1.00000000E-07  1.00000000E-07  1.00000000E-07  1.00000000E-07  1.00000000E-07  1.00000000E-07  1.00000000E-07  1.00000000E-07  1.00000000E-07  1.00000000E-07  1.00000000E-07  1.00000000E-07  1.00000000E-07  1.00000000E-07  1.00000000E-07  1.00000000E-07  1.00000000E-07
    1.00000000E-07  1.00000000E-07  1.00000000E-07  1.00000000E-07  1.00000000E-07  1.00000000E-07  1.00000000E-07  1.00000000E-07  1.00000000E-07  1.00000000E-07  1.00000000E-07  1.00000000E-07  1.00000000E-07  1.00000000E-07  1.00000000E-07  1.00000000E-07  1.00000000E-07  1.00000000E-07  1.00000000E-07  1.00000000E-07  1.00000000E-07  1.00000000E-07  1.00000000E-07  1.00000000E-07  1.00000000E-07  1.00000000E-07  1.00000000E-07  1.00000000E-07  1.00000000E-07  1.00000000E-07  1.00000000E-07  1.00000000E-07  1.00000000E-07  1.00000000E-07  1.00000000E-07  1.00000000E-07  1.00000000E-07  1.00000000E-07  1.00000000E-07  1.00000000E-07  1.00000000E-07  1.00000000E-07  1.00000000E-07  1.00000000E-07  1.00000000E-07  1.00000000E-07  1.00000000E-07  1.00000000E-07  1.00000000E-07  1.00000000E-07  1.00000000E-07  1.00000000E-07  1.00000000E-07  1.00000000E-07  1.00000000E-07  1.00000000E-07  1.00000000E-07  1.00000000E-07  1.00000000E-07  1.00000000E-07  1.00000000E-07  1.00000000E-07  1.00000000E-07  1.00000000E-07  1.00000000E-07  1.00000000E-07  1.00000000E-07  1.00000000E-07  1.00000000E-07  1.00000000E-07  1.00000000E-07  1.00000000E-07  1.00000000E-07  1.00000000E-07  1.00000000E-07  1.00000000E-07  1.00000000E-07  1.00000000E-07  1.00000000E-07  1.00000000E-07  1.00000000E-07  1.00000000E-07  1.00000000E-07  1.00000000E-07  1.00000000E-07  1.00000000E-07  1.00000000E-07  1.00000000E-07  1.00000000E-07  1.00000000E-07  1.00000000E-07  1.00000000E-07  1.00000000E-07  1.00000000E-07  1.00000000E-07  1.00000000E-07  1.00000000E-07  1.00000000E-07  1.00000000E-07  1.00000000E-07  1.00000000E-07
    1.00000000E-07  1.00000000E-07  1.00000000E-07  1.00000000E-07  1.00000000E-07  1.00000000E-07  1.00000000E-07  1.00000000E-07  1.00000000E-07  1.00000000E-07  1.00000000E-07  1.00000000E-07  1.00000000E-07  1.00000000E-07  1.00000000E-07  1.00000000E-07  1.00000000E-07  1.00000000E-07  1.00000000E-07  1.00000000E-07  1.00000000E-07  1.00000000E-07  1.00000000E-07  1.00000000E-07  1.00000000E-07  1.00000000E-07  1.00000000E-07  1.00000000E-07  1.00000000E-07  1.00000000E-07  1.00000000E-07  1.00000000E-07  1.00000000E-07  1.00000000E-07  1.00000000E-07  1.00000000E-07  1.00000000E-07  1.00000000E-07  1.00000000E-07  1.00000000E-07  1.00000000E-07  1.00000000E-07  1.00000000E-07  1.00000000E-07  1.00000000E-07  1.00000000E-07  1.00000000E-07  1.00000000E-07  1.00000000E-07  1.00000000E-07  1.00000000E-07  1.00000000E-07  1.00000000E-07  1.00000000E-07  1.00000000E-07  1.00000000E-07  1.00000000E-07  1.00000000E-07  1.00000000E-07  1.00000000E-07  1.00000000E-07  1.00000000E-07  1.00000000E-07  1.00000000E-07  1.00000000E-07  1.00000000E-07  1.00000000E-07  1.00000000E-07  1.00000000E-07  1.00000000E-07  1.00000000E-07  1.00000000E-07  1.00000000E-07  1.00000000E-07  1.00000000E-07  1.00000000E-07  1.00000000E-07  1.00000000E-07  1.00000000E-07  1.00000000E-07  1.00000000E-07  1.00000000E-07  1.00000000E-07  1.00000000E-07  1.00000000E-07  1.00000000E-07  1.00000000E-07  1.00000000E-07  1.00000000E-07  1.00000000E-07  1.00000000E-07  1.00000000E-07  1.00000000E-07  1.00000000E-07  1.00000000E-07  1.00000000E-07  1.00000000E-07  1.00000000E-07  1.00000000E-07  1.00000000E-07  1.00000000E-07
    1.00000000E-07  1.00000000E-07  1.00000000E-07  1.00000000E-07  1.00000000E-07  1.00000000E-07  1.00000000E-07  1.00000000E-07  1.00000000E-07  1.00000000E-07  1.00000000E-07  1.00000000E-07  1.00000000E-07  1.00000000E-07  1.00000000E-07  1.00000000E-07  1.00000000E-07  1.00000000E-07  1.00000000E-07  1.00000000E-07  1.00000000E-07  1.00000000E-07  1.00000000E-07  1.00000000E-07  1.00000000E-07  1.00000000E-07  1.00000000E-07  1.00000000E-07  1.00000000E-07  1.00000000E-07  1.00000000E-07  1.00000000E-07  1.00000000E-07  1.00000000E-07  1.00000000E-07  1.00000000E-07  1.00000000E-07  1.00000000E-07  1.00000000E-07  1.00000000E-07  1.00000000E-07  1.00000000E-07  1.00000000E-07  1.00000000E-07  1.00000000E-07  1.00000000E-07  1.00000000E-07  1.00000000E-07  1.00000000E-07  1.00000000E-07  1.00000000E-07  1.00000000E-07  1.00000000E-07  1.00000000E-07  1.00000000E-07  1.00000000E-07  1.00000000E-07  1.00000000E-07  1.00000000E-07  1.00000000E-07  1.00000000E-07  1.00000000E-07  1.00000000E-07  1.00000000E-07  1.00000000E-07  1.00000000E-07  1.00000000E-07  1.00000000E-07  1.00000000E-07  1.00000000E-07  1.00000000E-07  1.00000000E-07  1.00000000E-07  1.00000000E-07  1.00000000E-07  1.00000000E-07  1.00000000E-07  1.00000000E-07  1.00000000E-07  1.00000000E-07  1.00000000E-07  1.00000000E-07  1.00000000E-07  1.00000000E-07  1.00000000E-07  1.00000000E-07  1.00000000E-07  1.00000000E-07  1.00000000E-07  1.00000000E-07  1.00000000E-07  1.00000000E-07  1.00000000E-07  1.00000000E-07  1.00000000E-07  1.00000000E-07  1.00000000E-07  1.00000000E-07  1.00000000E-07  1.00000000E-07  1.00000000E-07
    1.00000000E-07  1.00000000E-07  1.00000000E-07  1.00000000E-07  1.00000000E-07  1.00000000E-07  1.00000000E-07  1.00000000E-07  1.00000000E-07  1.00000000E-07  1.00000000E-07  1.00000000E-07  1.00000000E-07  1.00000000E-07  1.00000000E-07  1.00000000E-07  1.00000000E-07  1.00000000E-07  1.00000000E-07  1.00000000E-07  1.00000000E-07  1.00000000E-07  1.00000000E-07  1.00000000E-07  1.00000000E-07  1.00000000E-07  1.00000000E-07  1.00000000E-07  1.00000000E-07  1.00000000E-07  1.00000000E-07  1.00000000E-07  1.00000000E-07  1.00000000E-07  1.00000000E-07  1.00000000E-07  1.00000000E-07  1.00000000E-07  1.00000000E-07  1.00000000E-07  1.00000000E-07  1.00000000E-07  1.00000000E-07  1.00000000E-07  1.00000000E-07  1.00000000E-07  1.00000000E-07  1.00000000E-07  1.00000000E-07  1.00000000E-07  1.00000000E-07  1.00000000E-07  1.00000000E-07  1.00000000E-07  1.00000000E-07  1.00000000E-07  1.00000000E-07  1.00000000E-07  1.00000000E-07  1.00000000E-07  1.00000000E-07  1.00000000E-07  1.00000000E-07  1.00000000E-07  1.00000000E-07  1.00000000E-07  1.00000000E-07  1.00000000E-07  1.00000000E-07  1.00000000E-07  1.00000000E-07  1.00000000E-07  1.00000000E-07  1.00000000E-07  1.00000000E-07  1.00000000E-07  1.00000000E-07  1.00000000E-07  1.00000000E-07  1.00000000E-07  1.00000000E-07  1.00000000E-07  1.00000000E-07  1.00000000E-07  1.00000000E-07  1.00000000E-07  1.00000000E-07  1.00000000E-07  1.00000000E-07  1.00000000E-07  1.00000000E-07  1.00000000E-07  1.00000000E-07  1.00000000E-07  1.00000000E-07  1.00000000E-07  1.00000000E-07  1.00000000E-07  1.00000000E-07  1.00000000E-07  1.00000000E-07
    1.00000000E-07  1.00000000E-07  1.00000000E-07  1.00000000E-07  1.00000000E-07  1.00000000E-07  1.00000000E-07  1.00000000E-07  1.00000000E-07  1.00000000E-07  1.00000000E-07  1.00000000E-07  1.00000000E-07  1.00000000E-07  1.00000000E-07  1.00000000E-07  1.00000000E-07  1.00000000E-07  1.00000000E-07  1.00000000E-07  1.00000000E-07  1.00000000E-07  1.00000000E-07  1.00000000E-07  1.00000000E-07  1.00000000E-07  1.00000000E-07  1.00000000E-07  1.00000000E-07  1.00000000E-07  1.00000000E-07  1.00000000E-07  1.00000000E-07  1.00000000E-07  1.00000000E-07  1.00000000E-07  1.00000000E-07  1.00000000E-07  1.00000000E-07  1.00000000E-07  1.00000000E-07  1.00000000E-07  1.00000000E-07  1.00000000E-07  1.00000000E-07  1.00000000E-07  1.00000000E-07  1.00000000E-07  1.00000000E-07  1.00000000E-07  1.00000000E-07  1.00000000E-07  1.00000000E-07  1.00000000E-07  1.00000000E-07  1.00000000E-07  1.00000000E-07  1.00000000E-07  1.00000000E-07  1.00000000E-07  1.00000000E-07  1.00000000E-07  1.00000000E-07  1.00000000E-07  1.00000000E-07  1.00000000E-07  1.00000000E-07  1.00000000E-07  1.00000000E-07  1.00000000E-07  1.00000000E-07  1.00000000E-07  1.00000000E-07  1.00000000E-07  1.00000000E-07  1.00000000E-07  1.00000000E-07  1.00000000E-07  1.00000000E-07  1.00000000E-07  1.00000000E-07  1.00000000E-07  1.00000000E-07  1.00000000E-07  1.00000000E-07  1.00000000E-07  1.00000000E-07  1.00000000E-07  1.00000000E-07  1.00000000E-07  1.00000000E-07  1.00000000E-07  1.00000000E-07  1.00000000E-07  1.00000000E-07  1.00000000E-07  1.00000000E-07  1.00000000E-07  1.00000000E-07  1.00000000E-07  1.00000000E-07
    1.00000000E-07  1.00000000E-07  1.00000000E-07  1.00000000E-07  1.00000000E-07  1.00000000E-07  1.00000000E-07  1.00000000E-07  1.00000000E-07  1.00000000E-07  1.00000000E-07  1.00000000E-07  1.00000000E-07  1.00000000E-07  1.00000000E-07  1.00000000E-07  1.00000000E-07  1.00000000E-07  1.00000000E-07  1.00000000E-07  1.00000000E-07  1.00000000E-07  1.00000000E-07  1.00000000E-07  1.00000000E-07  1.00000000E-07  1.00000000E-07  1.00000000E-07  1.00000000E-07  1.00000000E-07  1.00000000E-07  1.00000000E-07  1.00000000E-07  1.00000000E-07  1.00000000E-07  1.00000000E-07  1.00000000E-07  1.00000000E-07  1.00000000E-07  1.00000000E-07  1.00000000E-07  1.00000000E-07  1.00000000E-07  1.00000000E-07  1.00000000E-07  1.00000000E-07  1.00000000E-07  1.00000000E-07  1.00000000E-07  1.00000000E-07  1.00000000E-07  1.00000000E-07  1.00000000E-07  1.00000000E-07  1.00000000E-07  1.00000000E-07  1.00000000E-07  1.00000000E-07  1.00000000E-07  1.00000000E-07  1.00000000E-07  1.00000000E-07  1.00000000E-07  1.00000000E-07  1.00000000E-07  1.00000000E-07  1.00000000E-07  1.00000000E-07  1.00000000E-07  1.00000000E-07  1.00000000E-07  1.00000000E-07  1.00000000E-07  1.00000000E-07  1.00000000E-07  1.00000000E-07  1.00000000E-07  1.00000000E-07  1.00000000E-07  1.00000000E-07  1.00000000E-07  1.00000000E-07  1.00000000E-07  1.00000000E-07  1.00000000E-07  1.00000000E-07  1.00000000E-07  1.00000000E-07  1.00000000E-07  1.00000000E-07  1.00000000E-07  1.00000000E-07  1.00000000E-07  1.00000000E-07  1.00000000E-07  1.00000000E-07  1.00000000E-07  1.00000000E-07  1.00000000E-07  1.00000000E-07  1.00000000E-07