# File generated by Flopy version 3.3.7 on 08/25/2023 at 16:03:15.
BEGIN options
  SAVE_FLOWS
  NEWTON  UNDER_RELAXATION
END options

BEGIN packages
  oc6  model.oc  oc
  chd6  model.chd  chd_0
  npf6  model.npf  npf
  ic6  model.ic  ic
  dis6  model.dis  dis
  WEL6  model.wel  wel_0
END packages

