# File generated by Flopy version 3.3.7 on 08/25/2023 at 16:03:16.
BEGIN options
  BUDGET  FILEOUT  test1.cbb
  HEAD  FILEOUT  test1.hds
END options

BEGIN period  1
  SAVE  head  all
  SAVE  budget  all
  PRINT  head  last
END period  1

