# File generated by Flopy version 3.3.7 on 08/25/2023 at 16:03:15.
BEGIN options
  COMPLEXITY  simple
END options

BEGIN nonlinear
  OUTER_MAXIMUM  300
END nonlinear

BEGIN linear
  INNER_MAXIMUM  500
  inner_rclose       0.00100000  strict
  LINEAR_ACCELERATION  bicgstab
END linear

