
MODPATH Version 7.2.001   
Program compiled Dec 10 2022 04:51:18 with IFORT compiler (ver. 20.21.7)        
 
This software has been approved for release by the U.S. Geological
Survey (USGS). Although the software has been subjected to rigorous
review, the USGS reserves the right to update the software as needed
pursuant to further analysis and review. No warranty, expressed or
implied, is made by the USGS or the U.S. Government as to the
functionality of the software and related material nor shall the
fact of release constitute any such warranty. Furthermore, the
software is released on condition that neither the USGS nor the U.S.
Government shall be held liable for any damages resulting from its
authorized or unauthorized use. Also refer to the USGS Water
Resources Software User Rights Notice for complete use, copyright,
and distribution information.
 

MODPATH name file data
----------------------
   MPBAS File: test1_mp_backward.mpbas
  GRBDIS File: ./model.dis.grb
    TDIS File: ./test1.tdis
    HEAD File: ./test1.hds
  BUDGET File: ./test1.cbb

Grid data
---------
Grid file type: MODFLOW-6 DIS binary grid file.
Time discretization file type: MODFLOW-6 time discretization file.
 # File generated by Flopy version 3.3.7 on 08/25/2023 at 16:03:15.
 
 Time discretization file data
 -----------------------------
 Stress period count =          1
 Period length:        1.00000 Time step count:         1 Time step multiplier:        1.00000
 
 The budget file was opened successfully.
 
 MODPATH basic data file data
 ----------------------------
 # # MPBAS package for MODPATH 7 generated by Flopy 3.3.7
 Aquifer head is set to  1.00000E+30 at cells with IDOMAIN = 0.
 Aquifer head is set to -1.00000E+30 at all dry cells when Newton-Raphson rewetting is not active.
 

                 POROSITY =  0.300000     FOR LAYER   1

                 POROSITY =  0.300000     FOR LAYER   2

                 POROSITY =  0.300000     FOR LAYER   3

                 POROSITY =  0.300000     FOR LAYER   4

                 POROSITY =  0.300000     FOR LAYER   5

                 POROSITY =  0.300000     FOR LAYER   6

                 POROSITY =  0.300000     FOR LAYER   7

                 POROSITY =  0.300000     FOR LAYER   8

                 POROSITY =  0.300000     FOR LAYER   9

                 POROSITY =  0.300000     FOR LAYER  10

                 POROSITY =  0.300000     FOR LAYER  11

                 POROSITY =  0.300000     FOR LAYER  12

                 POROSITY =  0.300000     FOR LAYER  13

                 POROSITY =  0.300000     FOR LAYER  14

                 POROSITY =  0.300000     FOR LAYER  15

                 POROSITY =  0.300000     FOR LAYER  16

                 POROSITY =  0.300000     FOR LAYER  17

                 POROSITY =  0.300000     FOR LAYER  18

                 POROSITY =  0.300000     FOR LAYER  19

                 POROSITY =  0.300000     FOR LAYER  20
 
 MODPATH simulation file data
 ----------------------------
 # MPSIM package for MODPATH 7 generated by Flopy 3.3.7
Combined Pathline and Timeseries Analysis (Simulation type = 4)
Backward tracking (Tracking direction = 2)
Let particles pass through weak sink cells (Weak sink option = 1)
Let particles pass through weak source cells for backtracking simulations (Weak source option = 1)
Reference time =   0.0000000E+00
Extend initial or final steady-state time step and continue tracking (Stopping time option =  2)
The zone value for all cells = 1

The retardation factor for all cells = 1

Number of particle groups =     1
