# # MPBAS package for MODPATH 7 generated by Flopy 3.3.7
0                   # DEFAULTIFACECOUNT
CONSTANT    3.000000E-01                           #porosity layer 1              
CONSTANT    3.000000E-01                           #porosity layer 2              
CONSTANT    3.000000E-01                           #porosity layer 3              
CONSTANT    3.000000E-01                           #porosity layer 4              
CONSTANT    3.000000E-01                           #porosity layer 5              
CONSTANT    3.000000E-01                           #porosity layer 6              
CONSTANT    3.000000E-01                           #porosity layer 7              
CONSTANT    3.000000E-01                           #porosity layer 8              
CONSTANT    3.000000E-01                           #porosity layer 9              
CONSTANT    3.000000E-01                           #porosity layer 10             
CONSTANT    3.000000E-01                           #porosity layer 11             
CONSTANT    3.000000E-01                           #porosity layer 12             
CONSTANT    3.000000E-01                           #porosity layer 13             
CONSTANT    3.000000E-01                           #porosity layer 14             
CONSTANT    3.000000E-01                           #porosity layer 15             
CONSTANT    3.000000E-01                           #porosity layer 16             
CONSTANT    3.000000E-01                           #porosity layer 17             
CONSTANT    3.000000E-01                           #porosity layer 18             
CONSTANT    3.000000E-01                           #porosity layer 19             
CONSTANT    3.000000E-01                           #porosity layer 20             
