# Name file for MODPATH 7, generated by Flopy version 3.3.7.
MPBAS      test1_mp_backward.mpbas
GRBDIS     ./model.dis.grb
TDIS       ./test1.tdis
HEAD       ./test1.hds
BUDGET     ./test1.cbb
